Material: main / Tb3Ga5O12 / Franta
Optical constants. D. Franta, M.-G. Mureșan, P. Ondračka, B. Hroncová, F. Vižďa. Wide spectral range optical characterization of terbium gallium garnet (TGG) single crystal by universal dispersion model, Opt. Laser Technol. 181, 111916 (2025) (Numerical data kindly provided by Daniel Franta)
Comments: Single-crystal Tb3Ga5O12; Heterogenous data processing combining ellipsometric and spectrophotometric measurements with refractive index data (Schlarb et al. 1994); 5, 3, and 0.5 mm thick plates; Room temperature.
wavelength (um)	n	k
0.119997	2.002136E+00	9.707653E-01
0.137079	2.201734E+00	1.041559E+00
0.148909	2.340427E+00	8.442857E-01
0.150650	2.351195E+00	8.124002E-01
0.153239	2.355706E+00	7.658234E-01
0.175013	2.380922E+00	6.184628E-01
0.181320	2.453329E+00	5.733382E-01
0.183050	2.468751E+00	5.401116E-01
0.185052	2.472334E+00	4.994448E-01
0.188233	2.456877E+00	4.495682E-01
0.209108	2.480715E+00	3.526080E-01
0.213978	2.560668E+00	2.800693E-01
0.216431	2.576241E+00	1.949550E-01
0.218497	2.552398E+00	1.200788E-01
0.220861	2.491944E+00	6.323067E-02
0.223702	2.424337E+00	4.112910E-02
0.229242	2.346669E+00	4.665545E-02
0.234123	2.318438E+00	4.697138E-02
0.236412	2.307620E+00	4.163738E-02
0.240032	2.287278E+00	3.043014E-02
0.245680	2.247326E+00	2.008183E-02
0.249758	2.220093E+00	2.425079E-02
0.252258	2.207867E+00	3.071338E-02
0.255106	2.199614E+00	3.900845E-02
0.261138	2.198073E+00	4.734375E-02
0.266437	2.199310E+00	3.825551E-02
0.269274	2.196242E+00	2.979701E-02
0.272157	2.190069E+00	2.114010E-02
0.277185	2.174598E+00	9.519160E-03
0.281884	2.158885E+00	3.669218E-03
0.285328	2.148259E+00	1.631712E-03
0.288118	2.140480E+00	8.006889E-04
0.291487	2.132030E+00	3.266811E-04
0.294100	2.126095E+00	1.663437E-04
0.296838	2.120350E+00	9.290642E-05
0.300414	2.113450E+00	7.276386E-05
0.303648	2.107706E+00	1.114448E-04
0.307022	2.102153E+00	1.512564E-04
0.312442	2.094032E+00	1.747122E-04
0.317556	2.087027E+00	1.099123E-04
0.320605	2.083082E+00	5.448283E-05
0.323534	2.079448E+00	2.603393E-05
0.326434	2.076006E+00	1.490068E-05
0.329378	2.072660E+00	8.362136E-06
0.332388	2.069385E+00	4.515658E-06
0.335482	2.066159E+00	8.574302E-06
0.338509	2.063133E+00	8.884854E-06
0.341562	2.060206E+00	1.429772E-05
0.344643	2.057361E+00	9.406028E-06
0.347752	2.054606E+00	1.648196E-05
0.350929	2.051898E+00	2.255683E-05
0.354095	2.049295E+00	3.570031E-05
0.357371	2.046719E+00	1.222739E-05
0.360616	2.044245E+00	2.529405E-05
0.363869	2.041861E+00	1.180335E-05
0.367172	2.039526E+00	2.064263E-05
0.370506	2.037228E+00	2.823396E-05
0.373869	2.035059E+00	2.413290E-05
0.377459	2.032762E+00	2.667028E-05
0.380842	2.030723E+00	1.742456E-05
0.384277	2.028694E+00	6.296767E-06
0.387744	2.026712E+00	1.546341E-06
0.391219	2.024792E+00	2.931792E-07
0.395066	2.022744E+00	1.721469E-07
0.404664	2.017953E+00	7.904140E-08
0.409020	2.015915E+00	5.217751E-08
0.414854	2.013310E+00	2.970766E-08
0.422177	2.010223E+00	1.647945E-08
0.426697	2.008414E+00	1.288362E-08
0.434680	2.005381E+00	1.013442E-08
0.463815	1.995827E+00	8.283742E-09
0.468026	1.994614E+00	2.288164E-08
0.473118	1.993197E+00	9.362284E-08
0.477359	1.992056E+00	2.345900E-07
0.481748	1.990911E+00	6.454384E-07
0.486206	1.989780E+00	4.823536E-06
0.490620	1.988711E+00	2.025622E-06
0.495074	1.987651E+00	9.306697E-07
0.499597	1.986607E+00	8.563781E-08
0.504946	1.985415E+00	2.088244E-08
0.509471	1.984438E+00	6.874661E-09
0.593294	1.970510E+00	5.307716E-09
0.789350	1.953961E+00	6.308146E-09
1.00304	1.945454E+00	1.173829E-08
1.03322	1.944601E+00	1.294424E-08
1.07949	1.943397E+00	1.504896E-08
1.09729	1.942963E+00	1.594663E-08
1.11101	1.942638E+00	1.667470E-08
1.12252	1.942372E+00	1.730949E-08
1.13291	1.942137E+00	1.790217E-08
1.14425	1.941885E+00	1.857104E-08
1.15790	1.941588E+00	1.940730E-08
1.17576	1.941208E+00	2.055477E-08
1.22171	1.940280E+00	2.379705E-08
1.25848	1.939579E+00	2.671480E-08
1.27709	1.939236E+00	2.830962E-08
1.29150	1.938976E+00	2.960217E-08
1.30383	1.938757E+00	3.074802E-08
1.31650	1.938535E+00	3.196617E-08
1.33205	1.938266E+00	3.351858E-08
1.35361	1.937900E+00	3.578027E-08
1.40716	1.937021E+00	4.298405E-08
1.43613	1.936560E+00	6.091441E-08
1.45444	1.936273E+00	1.065824E-07
1.47001	1.936031E+00	1.994839E-07
1.48378	1.935819E+00	3.467776E-07
1.49975	1.935574E+00	6.046489E-07
1.52149	1.935244E+00	1.069950E-06
1.54621	1.934870E+00	2.027944E-06
1.58807	1.934241E+00	6.023914E-06
1.61518	1.933831E+00	1.057601E-05
1.63538	1.933524E+00	1.597837E-05
1.65109	1.933281E+00	2.252472E-05
1.66713	1.933035E+00	3.180754E-05
1.68556	1.932741E+00	4.582219E-05
1.70616	1.932394E+00	5.826224E-05
1.72661	1.932003E+00	1.127811E-04
1.74249	1.931659E+00	2.607798E-04
1.75881	1.931406E+00	6.797935E-04
1.77499	1.931488E+00	5.625291E-04
1.79162	1.931406E+00	4.054325E-04
1.80871	1.930918E+00	4.303006E-04
1.82534	1.930509E+00	7.570795E-04
1.84213	1.930481E+00	2.105783E-03
1.85885	1.931729E+00	9.667554E-04
1.87551	1.931240E+00	3.818669E-04
1.89232	1.930783E+00	2.305512E-04
1.91964	1.930222E+00	2.081518E-04
1.94310	1.929889E+00	2.606924E-04
1.96311	1.929693E+00	1.698873E-04
1.98116	1.929386E+00	9.590952E-05
2.01127	1.928893E+00	8.021352E-05
2.03467	1.928557E+00	8.731475E-05
2.05551	1.928238E+00	6.394735E-05
2.09541	1.927641E+00	9.613904E-05
2.11760	1.927318E+00	8.852080E-05
2.14176	1.926955E+00	1.241785E-04
2.16344	1.926668E+00	1.183618E-04
2.18509	1.926278E+00	1.287793E-04
2.20544	1.925916E+00	2.537383E-04
2.22572	1.925896E+00	4.143413E-04
2.24657	1.925520E+00	2.917619E-04
2.26801	1.925397E+00	3.938868E-04
2.28965	1.925130E+00	4.352166E-04
2.31230	1.924901E+00	2.608354E-04
2.33719	1.924435E+00	1.912352E-04
2.35855	1.924273E+00	2.876903E-04
2.37996	1.923910E+00	1.255743E-04
2.41529	1.923346E+00	1.577854E-04
2.45044	1.922885E+00	1.643285E-04
2.47468	1.922522E+00	8.326647E-05
2.49931	1.922145E+00	6.404541E-05
2.52229	1.921769E+00	4.495582E-05
2.55458	1.921245E+00	4.393786E-05
2.57852	1.920888E+00	6.468396E-05
2.60687	1.920434E+00	3.903373E-05
2.65076	1.919710E+00	4.548908E-05
2.68222	1.919182E+00	7.274880E-05
2.70782	1.918785E+00	1.152099E-04
2.74107	1.918226E+00	1.346964E-04
2.76659	1.917872E+00	2.074304E-04
2.79235	1.917382E+00	1.650724E-04
2.81835	1.917016E+00	4.395364E-04
2.84459	1.916731E+00	2.065846E-04
2.87124	1.916154E+00	3.387578E-04
2.89814	1.915936E+00	2.543106E-04
2.92664	1.915345E+00	2.388098E-04
2.96138	1.914709E+00	2.341343E-04
2.98896	1.914136E+00	4.447810E-04
3.02079	1.913734E+00	5.404791E-04
3.05049	1.913457E+00	7.967999E-04
3.08049	1.913509E+00	5.353651E-04
3.10810	1.912781E+00	1.839765E-04
3.14681	1.911959E+00	1.386060E-04
3.18050	1.911264E+00	1.432133E-04
3.21566	1.910670E+00	2.173028E-04
3.24672	1.910115E+00	1.293147E-04
3.27978	1.909531E+00	1.371189E-04
3.32349	1.908708E+00	6.881565E-05
3.36295	1.907932E+00	5.040550E-05
3.39699	1.907270E+00	3.843950E-05
3.44326	1.906358E+00	2.623177E-05
3.55075	1.904203E+00	2.192312E-05
3.59000	1.903404E+00	2.427385E-05
3.71895	1.900725E+00	3.266578E-05
3.77025	1.899631E+00	3.738165E-05
3.86451	1.897571E+00	4.987706E-05
3.90994	1.896557E+00	6.258946E-05
3.95817	1.895455E+00	8.268103E-05
4.00516	1.894379E+00	1.493307E-04
4.05364	1.893289E+00	1.527202E-04
4.09609	1.892278E+00	2.185990E-04
4.14734	1.891172E+00	2.625758E-04
4.25520	1.888593E+00	2.720915E-04
4.30398	1.887395E+00	3.252146E-04
4.35281	1.886188E+00	4.180297E-04
4.39941	1.885273E+00	4.064931E-04
4.44114	1.884207E+00	3.273137E-04
4.51253	1.882353E+00	2.245118E-04
4.59404	1.880101E+00	2.200291E-04
4.64563	1.878669E+00	2.616459E-04
4.71704	1.876621E+00	4.080831E-04
4.76974	1.875067E+00	5.953869E-04
4.81388	1.874279E+00	1.096240E-03
4.87888	1.872741E+00	7.050835E-04
4.95273	1.870855E+00	5.730162E-04
5.00259	1.869381E+00	2.856094E-04
5.06780	1.867297E+00	1.845410E-04
5.20439	1.863006E+00	1.606293E-04
5.34220	1.858626E+00	1.956877E-04
5.51214	1.853103E+00	2.322159E-04
5.63923	1.848849E+00	2.870347E-04
5.77856	1.844072E+00	1.918918E-04
5.84278	1.841755E+00	1.455825E-04
5.96479	1.837237E+00	1.005343E-04
6.12943	1.830927E+00	7.750560E-05
6.44533	1.818083E+00	1.051424E-04
6.55005	1.813594E+00	1.314437E-04
6.67836	1.807907E+00	1.904291E-04
6.76737	1.803838E+00	2.873838E-04
6.86428	1.799366E+00	4.843677E-04
7.03185	1.791576E+00	6.681457E-04
7.22262	1.782020E+00	8.492274E-04
7.36241	1.774760E+00	1.302096E-03
7.48979	1.768178E+00	1.891608E-03
7.95005	1.743376E+00	2.272850E-03
8.28075	1.723202E+00	3.302798E-03
8.70903	1.695355E+00	2.667260E-03
9.11108	1.664399E+00	4.097571E-03
9.75820	1.609056E+00	6.067592E-03
10.1834	1.567331E+00	9.035370E-03
10.7114	1.509103E+00	1.288114E-02
10.9180	1.483701E+00	1.429998E-02
11.0648	1.464549E+00	1.526273E-02
11.1865	1.447880E+00	1.603404E-02
11.2933	1.432601E+00	1.669447E-02
11.4017	1.416396E+00	1.735526E-02
11.5278	1.396602E+00	1.812135E-02
11.6881	1.369751E+00	1.912047E-02
11.9397	1.323175E+00	2.087947E-02
12.4565	1.203626E+00	2.756980E-02
12.6859	1.134995E+00	3.595974E-02
12.8475	1.080303E+00	4.979629E-02
12.9791	1.038596E+00	6.809089E-02
13.1000	1.007127E+00	8.153935E-02
13.2387	9.652914E-01	8.280320E-02
13.4167	8.808674E-01	8.168489E-02
13.6756	7.078321E-01	1.140738E-01
13.9210	4.820702E-01	2.181717E-01
14.1586	2.897812E-01	4.945072E-01
14.4069	2.610163E-01	8.358930E-01
14.5871	3.460996E-01	1.106292E+00
14.7221	5.979769E-01	1.226578E+00
14.8549	6.917088E-01	9.930152E-01
15.0183	4.281667E-01	1.019833E+00
15.2439	3.194244E-01	1.335018E+00
15.6070	3.935259E-01	1.872695E+00
15.9338	6.820361E-01	2.547062E+00
16.1155	1.264120E+00	3.076506E+00
16.2853	2.534816E+00	2.949456E+00
16.4388	2.855414E+00	1.728354E+00
16.5861	2.241324E+00	1.122700E+00
16.7348	1.505878E+00	1.228148E+00
16.8848	1.203569E+00	1.997790E+00
17.0361	1.739033E+00	2.981466E+00
17.1888	3.558209E+00	2.931151E+00
17.3428	3.902071E+00	1.247805E+00
17.4983	3.326363E+00	6.028635E-01
17.7427	2.750459E+00	2.786232E-01
17.9761	2.385642E+00	1.832996E-01
18.1738	2.166084E+00	1.546542E-01
18.3461	2.011679E+00	1.411248E-01
18.5629	1.844089E+00	1.309564E-01
18.9647	1.569107E+00	1.253919E-01
19.5679	1.157948E+00	1.511857E-01
19.8242	9.551274E-01	1.859440E-01
20.0157	7.788623E-01	2.362536E-01
20.2300	5.527501E-01	3.560588E-01
20.5019	3.424660E-01	6.627089E-01
20.8651	3.135835E-01	1.104450E+00
21.1030	4.984105E-01	1.387971E+00
21.2995	8.497477E-01	1.236992E+00
21.4904	5.880179E-01	9.580786E-01
21.6918	3.235436E-01	1.110274E+00
21.9051	2.262165E-01	1.312386E+00
22.2316	1.755300E-01	1.570235E+00
22.9625	1.625767E-01	2.047333E+00
23.2873	1.640705E-01	2.252128E+00
23.5123	1.724338E-01	2.398265E+00
23.7832	1.886598E-01	2.574552E+00
24.4523	2.326370E-01	3.048130E+00
24.9327	3.002959E-01	3.457699E+00
25.1924	3.557328E-01	3.706224E+00
25.4577	4.290332E-01	3.993451E+00
25.9340	6.742007E-01	4.631836E+00
26.5167	1.386250E+00	5.620214E+00
26.8330	2.287507E+00	6.025995E+00
27.0954	2.854340E+00	6.219533E+00
27.4359	4.780386E+00	6.613576E+00
27.8657	6.481106E+00	3.835170E+00
28.2729	5.466309E+00	1.968474E+00
28.6118	4.465837E+00	1.407456E+00
28.8981	3.715273E+00	1.229024E+00
29.3339	2.559317E+00	1.360588E+00
29.8603	1.528594E+00	2.508674E+00
30.2705	1.584767E+00	3.584586E+00
30.5700	1.761720E+00	4.045294E+00
31.0220	1.765895E+00	5.160493E+00
31.5224	3.017436E+00	7.308896E+00
31.9205	6.429964E+00	8.250812E+00
32.2400	9.096072E+00	5.897219E+00
32.6265	8.774263E+00	2.911761E+00
33.1528	7.510576E+00	1.416336E+00
33.6760	6.596338E+00	8.639146E-01
34.0091	6.161487E+00	7.067954E-01
34.5617	5.716742E+00	6.945501E-01
35.0606	5.479867E+00	4.328430E-01
35.5218	5.162673E+00	3.454337E-01
35.8856	4.963298E+00	3.127683E-01
37.5206	4.245126E+00	2.746898E-01
38.4388	3.776118E+00	3.768547E-01
38.9332	3.400676E+00	6.344864E-01
39.2821	3.157780E+00	1.184736E+00
39.7141	3.947290E+00	2.183342E+00
40.1809	5.037560E+00	1.343439E+00
40.6205	4.815018E+00	6.975724E-01
41.0317	4.551476E+00	4.890449E-01
41.9682	4.113871E+00	3.811050E-01
42.6746	3.824910E+00	4.402378E-01
43.3181	3.561413E+00	6.393529E-01
44.0448	3.346544E+00	1.163729E+00
44.5036	3.575229E+00	1.823586E+00
45.0993	4.742412E+00	1.932544E+00
45.8559	5.125489E+00	9.131891E-01
46.3361	4.965327E+00	5.822650E-01
47.1433	4.706511E+00	3.080765E-01
47.7606	4.538839E+00	2.157441E-01
48.4195	4.400949E+00	1.706060E-01
50.1730	4.145520E+00	1.438188E-01
50.7510	4.085547E+00	2.291376E-01
51.2354	4.203778E+00	1.958799E-01
51.6946	4.136890E+00	1.066743E-01
58.0657	3.778568E+00	5.719623E-02
64.1978	3.538577E+00	4.328238E-02
66.4462	3.392241E+00	6.385170E-02
67.2078	3.299831E+00	9.536444E-02
67.8336	3.173563E+00	1.786922E-01
68.4416	3.060628E+00	4.787343E-01
69.0748	3.481894E+00	8.590214E-01
69.8506	3.941343E+00	4.299942E-01
70.4766	3.821991E+00	1.643907E-01
71.1328	3.694028E+00	9.043704E-02
72.7813	3.531711E+00	6.157720E-02
77.0406	3.313745E+00	6.993924E-02
80.0977	3.067861E+00	4.804650E-02
81.3664	2.871200E+00	6.737142E-02
82.4745	2.612391E+00	1.343528E-01
83.3240	2.307670E+00	2.656949E-01
84.0707	1.896025E+00	5.694278E-01
84.8242	1.507717E+00	1.466238E+00
85.5845	2.096366E+00	2.953376E+00
86.3515	4.689811E+00	2.942550E+00
87.1254	4.524193E+00	9.854026E-01
87.9063	3.717790E+00	6.896138E-01
88.6941	3.141149E+00	1.025143E+00
89.6282	3.207573E+00	2.072882E+00
90.5149	4.518294E+00	2.430285E+00
91.4945	5.242330E+00	1.362976E+00
92.7566	4.952883E+00	5.728420E-01
93.9550	4.666731E+00	3.122074E-01
95.1853	4.465040E+00	1.961628E-01
96.6930	4.297536E+00	1.279014E-01
99.3733	4.111846E+00	7.660607E-02
101.922	4.001156E+00	5.724684E-02
106.775	3.866717E+00	4.538219E-02
110.859	3.778892E+00	4.644351E-02
112.046	3.748326E+00	4.994793E-02
113.095	3.712536E+00	5.797732E-02
114.148	3.657058E+00	8.366182E-02
115.171	3.582834E+00	1.949596E-01
116.257	3.783849E+00	3.997847E-01
117.407	3.937949E+00	1.927319E-01
118.500	3.886133E+00	1.060732E-01
120.634	3.825747E+00	6.962261E-02
124.837	3.777221E+00	5.443623E-02
127.019	3.762634E+00	4.996572E-02
128.594	3.753833E+00	4.689621E-02
129.896	3.747206E+00	4.439649E-02
131.098	3.741444E+00	4.213253E-02
132.509	3.734988E+00	3.956235E-02
134.344	3.726967E+00	3.642971E-02
137.703	3.713182E+00	3.152511E-02
143.159	3.693251E+00	2.601559E-02
145.251	3.686460E+00	2.458857E-02
146.840	3.681613E+00	2.370032E-02
158.533	3.653159E+00	2.024585E-02
210.533	3.598413E+00	1.581542E-02
280.104	3.573939E+00	1.123380E-02
372.666	3.560705E+00	7.667294E-03
